boundary        p p p

units           metal  # ev, ps
atom_style      dpd
read_data       data.dpd
  orthogonal box = (-64.5 -64.5 -64.5) to (64.5 64.5 64.5)
  reading atoms ...
  10125 atoms
  reading velocities ...
  10125 velocities

comm_modify     mode single vel yes
mass            1 125.9

pair_style      dpd/fdt/energy 8.6 245455
pair_coeff      1 1 0.075 0.022 3.2E-05 8.60

neighbor        2.0 bin
neigh_modify    every 1 delay 0 check no once no

timestep        0.001

fix             1 all dpd/energy
fix             2 all nve
fix             3 all eos/cv 0.00517041

compute         dpdU all dpd

variable        totEnergy equal pe+ke+c_dpdU[1]+c_dpdU[2]

thermo          10
thermo_style    custom step temp press pe ke c_dpdU[1] c_dpdU[2] v_totEnergy c_dpdU[4]
thermo_modify   format float %24.16f

run             1000
  1 neighbor list requests
  update every 1 steps, delay 0 steps, check no
Step Temp Press PotEng KinEng c_dpdU[1] c_dpdU[2] v_totEnergy c_dpdU[4]
0     301.4391322267262012    1636.1776395935085020    1188.6488072196075336     394.4722035796053206    7852.5601874986105031    7852.5601874986105031   17288.2413857964347699     299.9999999999841407
Averages over the last 51 of 101 rows, steps 500 to 1000:
Temp Press PotEng KinEng c_dpdU[1] c_dpdU[2] v_totEnergy c_dpdU[4]
301.235 1535.15 1188.81 394.205 7852.56 7852.6 17288.2 299.972
Loop time of 21.3308 on 1 procs for 1000 steps with 10125 atoms
