LAMMPS (5 Nov 2016)
# NUFEB simulation

atom_style	bio
atom_modify	map array sort 100 5.0e-7
boundary	pp pp ff
newton		off
processors  * * 1

comm_modify	vel yes
read_data_bio atom.in
  orthogonal box = (0 0 0) to (0.0001 4e-05 0.0001)
  reading atoms ...
  41 atoms
  5 nutrients

group HET type 1
40 atoms in group HET
group EPS type 2
1 atoms in group EPS

neighbor	5e-7 bin
neigh_modify	delay 0 one 5000

##############Define DEM Variables&Commands##############

pair_style  gran/hooke/history 1.e-4 NULL 1.e-5 NULL 0.0 1
pair_coeff  * *

timestep 10

fix 1 all nve/limit 1e-8
fix fv all viscous 1e-5

fix zw all wall/gran hooke/history 2000 NULL 500.0 NULL 1.5 0 zplane  0.0  1e-04

variable kanc equal 50

fix zwa all walladh v_kanc zplane  0.0  1e-04

variable ke equal 5e+10
#fix j1 all epsadh 1 v_ke 1

##############Define IBm Variables##############

#variables used in fix eps_extract
variable EPSdens equal 30
variable EPSratio equal 1.3

#variables used in fix division
variable divDia equal 1.36e-6

#variables used in fix kinetics
variable diffT equal 1e-4
variable tol equal 1e-6
variable etaHET equal 0.6
variable layer equal -1

#variables used in fix death
variable deadDia equal 9e-7

##############Define IBm Commands##############

fix k1 all kinetics 100 25 10 25 v_diffT v_layer niter -1
fix kgm all kinetics/growth/monod v_EPSdens v_etaHET
fix g1 all kinetics/diffusion v_tol pp pp nd kg dcflag 2
fix d1 all divide 100 v_EPSdens v_divDia 64564
fix e1 HET eps_extract 100 v_EPSratio v_EPSdens 53453

##############Define IBm Computes##############

compute myNtypes all ntypes
compute myPressure all pressure thermo_temp

##############Simulation Output##############

dump		id all custom 1000 output.lammmps id type diameter x y z
dump		du1 all custom/vtk 1000 atom%_*.vtu id type diameter x y z
dump		du2 all grid 1000 grid_%_*.vti con
thermo_style    custom step cpu atoms biomass c_myNtypes[*] c_myPressure
thermo		100
thermo_modify	lost ignore

run 80000
  2 neighbor list requests
  update every 1 steps, delay 0 steps, check yes
Step CPU Atoms biomass c_myNtypes[1] c_myNtypes[2] c_myNtypes[3] c_myPressure
0            0       41 3.1415927e-15            0           40            1            0
number of iterations: 49950
number of iterations: 22348
number of iterations: 24800
number of iterations: 27174
number of iterations: 29315
number of iterations: 31040
number of iterations: 32161
number of iterations: 32538
number of iterations: 32057
number of iterations: 30798
number of iterations: 28946
number of iterations: 27046
number of iterations: 25054
number of iterations: 22613
number of iterations: 20600
number of iterations: 19462
number of iterations: 17543
number of iterations: 16057
number of iterations: 14364
number of iterations: 13534
number of iterations: 12017
number of iterations: 11077
number of iterations: 10148
number of iterations: 10013
number of iterations: 9088
number of iterations: 8378
number of iterations: 8471
number of iterations: 7437
number of iterations: 7315
number of iterations: 7237
number of iterations: 6997
number of iterations: 6221
number of iterations: 5536
number of iterations: 5895
number of iterations: 5528
number of iterations: 5061
number of iterations: 4721
number of iterations: 4650
number of iterations: 4603
number of iterations: 4327
number of iterations: 4510
number of iterations: 3969
number of iterations: 3750
number of iterations: 3973
number of iterations: 3856
number of iterations: 3678
number of iterations: 3329
number of iterations: 3018
number of iterations: 3133
number of iterations: 3275
number of iterations: 3124
number of iterations: 3378
number of iterations: 3064
number of iterations: 3074
number of iterations: 3056
number of iterations: 2773
number of iterations: 2402
number of iterations: 2335
number of iterations: 2338
number of iterations: 3049
number of iterations: 2477
number of iterations: 2384
number of iterations: 2668
number of iterations: 3228
number of iterations: 2604
number of iterations: 2443
number of iterations: 2447
number of iterations: 2953
number of iterations: 2409
number of iterations: 2296
number of iterations: 2420
number of iterations: 2284
number of iterations: 2485
number of iterations: 2364
number of iterations: 2756
number of iterations: 2163
number of iterations: 1493
number of iterations: 2320
number of iterations: 2428
number of iterations: 2531
number of iterations: 2149
number of iterations: 2052
number of iterations: 1902
number of iterations: 2168
number of iterations: 2022
number of iterations: 2037
number of iterations: 1903
number of iterations: 1701
number of iterations: 2421
number of iterations: 2172
number of iterations: 2010
number of iterations: 2149
number of iterations: 1618
number of iterations: 1773
number of iterations: 1672
number of iterations: 2053
number of iterations: 2299
number of iterations: 1809
number of iterations: 1768
number of iterations: 1933
number of iterations: 1751
number of iterations: 1951
number of iterations: 1908
number of iterations: 1463
number of iterations: 1976
number of iterations: 1996
number of iterations: 1625
number of iterations: 1878
number of iterations: 1822
number of iterations: 1577
number of iterations: 1708
number of iterations: 1794
number of iterations: 1592
number of iterations: 1769
number of iterations: 1905
number of iterations: 1523
number of iterations: 1594
number of iterations: 1718
number of iterations: 1793
number of iterations: 1743
number of iterations: 1530
number of iterations: 1420
number of iterations: 1559
number of iterations: 1692
number of iterations: 1730
number of iterations: 1323
number of iterations: 1671
number of iterations: 1566
number of iterations: 1221
number of iterations: 1617
number of iterations: 1396
number of iterations: 1390
number of iterations: 1201
number of iterations: 1444
number of iterations: 1491
number of iterations: 1259
number of iterations: 1536
number of iterations: 1160
number of iterations: 1266
number of iterations: 1306
number of iterations: 1414
number of iterations: 1234
number of iterations: 1433
number of iterations: 1238
number of iterations: 1187
number of iterations: 1314
number of iterations: 782
number of iterations: 1233
number of iterations: 1232
number of iterations: 1200
number of iterations: 761
number of iterations: 1440
number of iterations: 1266
number of iterations: 1184
number of iterations: 1247
number of iterations: 1076
number of iterations: 1230
number of iterations: 1234
number of iterations: 1384
number of iterations: 1294
number of iterations: 1003
number of iterations: 1208
number of iterations: 1204
number of iterations: 1396
number of iterations: 1005
number of iterations: 1083
number of iterations: 1317
number of iterations: 1259
number of iterations: 1441
number of iterations: 1025
number of iterations: 1119
number of iterations: 1222
number of iterations: 1043
number of iterations: 1170
number of iterations: 1276
number of iterations: 998
number of iterations: 1315
number of iterations: 1094
number of iterations: 990
number of iterations: 1061
number of iterations: 1065
number of iterations: 1091
number of iterations: 915
number of iterations: 973
number of iterations: 947
number of iterations: 800
number of iterations: 985
number of iterations: 1084
number of iterations: 1062
number of iterations: 927
number of iterations: 952
number of iterations: 1034
number of iterations: 1011
number of iterations: 921
number of iterations: 1282
number of iterations: 1201
number of iterations: 1306
number of iterations: 759
number of iterations: 1123
number of iterations: 1099
number of iterations: 796
number of iterations: 913
number of iterations: 867
number of iterations: 1016
number of iterations: 1226
number of iterations: 1001
number of iterations: 914
number of iterations: 1182
number of iterations: 1087
number of iterations: 1029
number of iterations: 950
number of iterations: 932
number of iterations: 998
number of iterations: 879
number of iterations: 1164
number of iterations: 990
number of iterations: 1271
number of iterations: 982
number of iterations: 830
number of iterations: 1289
number of iterations: 1069
number of iterations: 1382
number of iterations: 1219
number of iterations: 805
number of iterations: 1246
number of iterations: 752
number of iterations: 1065
number of iterations: 838
number of iterations: 972
number of iterations: 1067
number of iterations: 995
number of iterations: 1110
number of iterations: 920
number of iterations: 922
number of iterations: 1171
number of iterations: 943
number of iterations: 772
number of iterations: 1219
number of iterations: 1305
number of iterations: 1081
number of iterations: 912
number of iterations: 883
number of iterations: 956
number of iterations: 1340
number of iterations: 1437
number of iterations: 1139
number of iterations: 843
number of iterations: 1111
number of iterations: 810
number of iterations: 849
number of iterations: 1223
number of iterations: 966
number of iterations: 974
number of iterations: 1021
number of iterations: 1442
number of iterations: 1120
number of iterations: 1101
number of iterations: 969
number of iterations: 1142
number of iterations: 1408
number of iterations: 1053
number of iterations: 1215
number of iterations: 1416
number of iterations: 1447
number of iterations: 1378
number of iterations: 1182
number of iterations: 1390
number of iterations: 1317
number of iterations: 1095
number of iterations: 960
number of iterations: 1468
number of iterations: 1101
number of iterations: 1156
number of iterations: 1043
number of iterations: 868
number of iterations: 1192
number of iterations: 1397
number of iterations: 1281
number of iterations: 1277
number of iterations: 1379
number of iterations: 1485
number of iterations: 1182
number of iterations: 1021
number of iterations: 1297
number of iterations: 1047
number of iterations: 1158
number of iterations: 1393
number of iterations: 965
number of iterations: 992
number of iterations: 1309
number of iterations: 1370
number of iterations: 1108
number of iterations: 1170
number of iterations: 1108
number of iterations: 864
number of iterations: 1061
number of iterations: 1233
number of iterations: 754
number of iterations: 1457
number of iterations: 1091
number of iterations: 1041
number of iterations: 1213
number of iterations: 1090
number of iterations: 912
number of iterations: 938
number of iterations: 1222
number of iterations: 1130
number of iterations: 1332
number of iterations: 958
number of iterations: 1060
number of iterations: 1289
number of iterations: 1091
number of iterations: 1224
number of iterations: 1172
number of iterations: 1220
number of iterations: 1140
number of iterations: 1089
number of iterations: 1233
number of iterations: 1003
number of iterations: 1086
number of iterations: 1201
number of iterations: 1410
number of iterations: 1106
number of iterations: 1055
number of iterations: 1067
number of iterations: 1173
number of iterations: 1344
number of iterations: 1176
number of iterations: 1263
number of iterations: 1068
number of iterations: 1098
number of iterations: 1183
number of iterations: 1291
number of iterations: 1065
number of iterations: 1509
number of iterations: 852
number of iterations: 1030
number of iterations: 1078
number of iterations: 1082
number of iterations: 1086
number of iterations: 1101
number of iterations: 1204
number of iterations: 1282
number of iterations: 893
number of iterations: 1125
number of iterations: 1008
number of iterations: 1119
number of iterations: 1201
number of iterations: 1266
number of iterations: 1179
number of iterations: 1086
number of iterations: 1098
number of iterations: 1170
number of iterations: 1148
number of iterations: 937
number of iterations: 1277
number of iterations: 1298
number of iterations: 1223
number of iterations: 953
number of iterations: 1387
number of iterations: 1123
number of iterations: 1027
number of iterations: 971
number of iterations: 1182
number of iterations: 854
number of iterations: 1079
number of iterations: 1061
number of iterations: 1072
number of iterations: 1310
number of iterations: 1105
number of iterations: 974
number of iterations: 1189
number of iterations: 1237
number of iterations: 1213
number of iterations: 1258
number of iterations: 1200
number of iterations: 889
number of iterations: 1176
number of iterations: 1286
number of iterations: 1104
number of iterations: 838
number of iterations: 1570
number of iterations: 1347
number of iterations: 1116
number of iterations: 1535
number of iterations: 979
number of iterations: 1399
number of iterations: 1170
number of iterations: 1030
number of iterations: 960
number of iterations: 944
number of iterations: 1099
number of iterations: 1146
number of iterations: 1272
number of iterations: 1140
number of iterations: 1045
number of iterations: 1108
number of iterations: 1277
number of iterations: 1151
number of iterations: 793
number of iterations: 1042
number of iterations: 1238
number of iterations: 1021
number of iterations: 1167
number of iterations: 1107
number of iterations: 1495
number of iterations: 1086
number of iterations: 1308
number of iterations: 1213
number of iterations: 1125
number of iterations: 1017
number of iterations: 1140
number of iterations: 1616
number of iterations: 1210
number of iterations: 1058
number of iterations: 1413
number of iterations: 921
number of iterations: 1051
number of iterations: 1258
number of iterations: 1189
number of iterations: 1187
number of iterations: 1736
number of iterations: 1120
number of iterations: 1029
number of iterations: 951
number of iterations: 1173
number of iterations: 1100
number of iterations: 1077
number of iterations: 1479
number of iterations: 1265
number of iterations: 1091
number of iterations: 1278
number of iterations: 1130
number of iterations: 1278
number of iterations: 1170
number of iterations: 1432
number of iterations: 1322
number of iterations: 1356
number of iterations: 1434
number of iterations: 1042
number of iterations: 1165
number of iterations: 1659
number of iterations: 1085
number of iterations: 1548
number of iterations: 1173
number of iterations: 1127
number of iterations: 1583
number of iterations: 1151
number of iterations: 1263
number of iterations: 1002
number of iterations: 1429
number of iterations: 1292
number of iterations: 1246
number of iterations: 1231
number of iterations: 1259
number of iterations: 1219
number of iterations: 1409
number of iterations: 958
number of iterations: 1698
number of iterations: 1161
number of iterations: 1242
number of iterations: 1131
number of iterations: 1089
number of iterations: 1487
number of iterations: 1385
number of iterations: 1124
number of iterations: 1466
number of iterations: 1234
number of iterations: 1212
number of iterations: 1362
number of iterations: 1454
number of iterations: 1237
number of iterations: 1245
number of iterations: 1337
number of iterations: 1471
number of iterations: 1274
number of iterations: 1659
number of iterations: 1369
number of iterations: 1226
number of iterations: 1012
number of iterations: 1071
number of iterations: 1626
number of iterations: 1208
number of iterations: 1093
number of iterations: 1424
number of iterations: 1275
number of iterations: 1781
number of iterations: 1210
number of iterations: 1291
number of iterations: 1194
number of iterations: 1608
number of iterations: 1367
number of iterations: 1131
number of iterations: 1305
number of iterations: 1044
number of iterations: 1162
number of iterations: 1406
number of iterations: 1212
number of iterations: 1220
number of iterations: 1388
number of iterations: 1149
number of iterations: 1379
number of iterations: 1408
number of iterations: 1041
number of iterations: 1638
number of iterations: 1334
number of iterations: 1151
number of iterations: 1214
number of iterations: 1363
number of iterations: 1048
number of iterations: 1179
number of iterations: 1648
number of iterations: 1357
number of iterations: 1450
number of iterations: 1276
number of iterations: 1432
number of iterations: 1366
number of iterations: 1287
number of iterations: 1272
number of iterations: 1315
number of iterations: 1488
number of iterations: 1305
number of iterations: 1141
number of iterations: 1436
number of iterations: 1119
number of iterations: 1112
number of iterations: 1394
number of iterations: 1242
number of iterations: 1389
number of iterations: 1634
number of iterations: 1094
number of iterations: 1213
number of iterations: 1257
number of iterations: 1452
number of iterations: 1480
number of iterations: 1405
number of iterations: 1567
number of iterations: 1227
number of iterations: 1575
number of iterations: 1865
number of iterations: 1275
number of iterations: 1144
number of iterations: 1808
number of iterations: 1774
number of iterations: 1272
number of iterations: 1160
number of iterations: 1421
number of iterations: 1123
number of iterations: 1951
number of iterations: 1287
number of iterations: 1229
number of iterations: 1136
number of iterations: 1424
number of iterations: 1672
number of iterations: 1210
number of iterations: 1689
number of iterations: 1638
number of iterations: 1235
number of iterations: 1446
number of iterations: 1226
number of iterations: 1160
number of iterations: 1626
number of iterations: 1533
number of iterations: 1454
number of iterations: 1200
number of iterations: 1351
number of iterations: 1228
number of iterations: 1385
number of iterations: 1548
number of iterations: 1648
number of iterations: 1477
number of iterations: 1183
number of iterations: 1232
number of iterations: 1837
number of iterations: 1568
number of iterations: 1400
number of iterations: 1017
number of iterations: 1399
number of iterations: 2046
number of iterations: 1324
number of iterations: 1683
number of iterations: 1237
number of iterations: 1520
number of iterations: 1414
number of iterations: 1175
number of iterations: 1424
number of iterations: 1379
number of iterations: 1295
number of iterations: 1700
number of iterations: 1580
number of iterations: 1187
number of iterations: 1292
number of iterations: 1660
number of iterations: 1990
number of iterations: 1215
number of iterations: 1256
number of iterations: 1398
number of iterations: 1557
number of iterations: 1696
number of iterations: 1228
number of iterations: 1348
number of iterations: 1651
number of iterations: 1092
number of iterations: 1532
number of iterations: 1589
number of iterations: 1566
number of iterations: 1410
number of iterations: 1445
number of iterations: 1486
number of iterations: 1195
number of iterations: 1464
number of iterations: 1343
number of iterations: 1322
number of iterations: 1258
number of iterations: 1351
number of iterations: 1385
number of iterations: 1590
number of iterations: 1226
number of iterations: 1499
number of iterations: 1428
number of iterations: 1556
number of iterations: 1375
number of iterations: 1606
number of iterations: 1405
number of iterations: 1504
number of iterations: 1261
number of iterations: 1587
number of iterations: 1562
number of iterations: 1395
number of iterations: 1247
number of iterations: 1633
number of iterations: 1185
number of iterations: 1575
number of iterations: 1501
number of iterations: 1315
number of iterations: 1503
number of iterations: 2024
number of iterations: 1295
number of iterations: 2101
number of iterations: 1863
number of iterations: 1146
number of iterations: 1344
number of iterations: 1811
number of iterations: 1246
number of iterations: 1870
number of iterations: 1616
number of iterations: 2015
number of iterations: 1719
number of iterations: 1866
number of iterations: 1605
number of iterations: 1884
number of iterations: 2134
number of iterations: 1392
number of iterations: 1849
number of iterations: 1793
number of iterations: 1590
number of iterations: 1958
number of iterations: 1401
number of iterations: 1871
number of iterations: 1544
number of iterations: 1998
number of iterations: 1788
number of iterations: 1658
number of iterations: 1791
number of iterations: 1776
number of iterations: 1467
number of iterations: 1586
number of iterations: 1542
number of iterations: 1617
number of iterations: 1837
number of iterations: 1394
number of iterations: 1563
number of iterations: 1739
number of iterations: 1574
number of iterations: 1235
number of iterations: 2047
number of iterations: 1928
number of iterations: 1580
number of iterations: 1639
number of iterations: 1531
number of iterations: 1501
number of iterations: 1600
number of iterations: 1454
number of iterations: 1665
number of iterations: 1375
number of iterations: 1524
number of iterations: 1633
number of iterations: 1891
number of iterations: 1843
number of iterations: 1573
number of iterations: 1641
number of iterations: 1619
number of iterations: 1360
number of iterations: 1367
number of iterations: 1423
number of iterations: 1637
number of iterations: 1609
number of iterations: 1559
number of iterations: 2064
number of iterations: 1483
number of iterations: 1645
number of iterations: 1129
number of iterations: 1516
number of iterations: 1318
number of iterations: 1644
number of iterations: 1494
number of iterations: 1509
number of iterations: 1535
number of iterations: 1407
number of iterations: 1361
number of iterations: 1345
number of iterations: 1470
number of iterations: 1737
number of iterations: 1764
number of iterations: 1326
number of iterations: 1719
number of iterations: 1628
number of iterations: 1513
number of iterations: 1282
number of iterations: 1489
number of iterations: 1587
number of iterations: 1367
number of iterations: 1614
number of iterations: 1636
number of iterations: 1507
number of iterations: 1553
number of iterations: 1640
number of iterations: 1858
number of iterations: 1252
number of iterations: 1448
number of iterations: 1344
number of iterations: 1552
number of iterations: 1894
number of iterations: 1785
number of iterations: 1778
number of iterations: 1817
number of iterations: 1559
number of iterations: 1865
number of iterations: 1679
number of iterations: 1397
number of iterations: 1731
number of iterations: 1942
number of iterations: 2092
number of iterations: 2020
number of iterations: 809
number of iterations: 1556
number of iterations: 1370
number of iterations: 1419
number of iterations: 1705
number of iterations: 1551
number of iterations: 1840
number of iterations: 2325
number of iterations: 1662
number of iterations: 2348
number of iterations: 1882
number of iterations: 1914
number of iterations: 2161
number of iterations: 2117
number of iterations: 1846
number of iterations: 1770
number of iterations: 1766
number of iterations: 1794
number of iterations: 2136
number of iterations: 1510
number of iterations: 1900
number of iterations: 1829
number of iterations: 1859
number of iterations: 1646
number of iterations: 1905
number of iterations: 1734
number of iterations: 1854
number of iterations: 1787
number of iterations: 1786
number of iterations: 2031
number of iterations: 1493
number of iterations: 1622
number of iterations: 1628
number of iterations: 1713
number of iterations: 1859
number of iterations: 1704
number of iterations: 1557
number of iterations: 1641
number of iterations: 1958
number of iterations: 1481
number of iterations: 2024
number of iterations: 1337
number of iterations: 1592
number of iterations: 1790
number of iterations: 2059
number of iterations: 1500
number of iterations: 1908
number of iterations: 1638
number of iterations: 1787
number of iterations: 1856
number of iterations: 1623
number of iterations: 1664
number of iterations: 1634
number of iterations: 1428
number of iterations: 2080
number of iterations: 1726
Loop time of 768.609 on 4 procs for 80000 steps with 38542 atoms
